Codigos/Simulacoes/57/06 - EE/ieee57_14_1400_EE.txt
================================================================================= 
=== UFF - Doutorado em Computação - Aplicaçoes em Sistemas de Potencia        === 
=== ESTIMADOR DE ESTADO MÍNIMOS QUADRADOS PONDERADOS INCLUINDO MEDIDAS DE PMU === 
=== Desenvolvido por: Rui Menezes de Moraes - 2009                            === 
================================================================================= 
Arquivo de medidores:          F:\Documents\Uff\Artigos\SimSEP\VERSAO WELDAN V2\Codigos\Med\ieee57_14_1400.med
Arquivo do sistema:            F:\Documents\Uff\Artigos\SimSEP\VERSAO WELDAN V2\Codigos\Carga\ieee57_14_1400.txt
Tolerância entre iteraçoes:     1.00e-04
Limite de iteraçoes:           100

--- DADOS DA REDE --------------------------------------------------------------- 
Data do caso:                  08/25/93
Origem:                        UW ARCHIVE          
MVA base:                      100
Ano:                           1961
Estação:                       W
Identificação:                 IEEE 57 Bus Test Case
Número de barras:              57 
Número de ramos:               80 
Referência na barra:           1

--- TELEMEDIDAS ------------------------------------------------------------------
    Tipo 1 = Fluxo de potencia ativa        Tipo  6 = Módulo da tensão            
    Tipo 2 = Injeção de potencia ativa      Tipo  7 = Corrente de ramo (real)     
    Tipo 3 = Ângulo de fase da tensão       Tipo  8 = Corrente de ramo (imag)     
    Tipo 4 = Fluxo de potencia reativa      Tipo  9 = Injeção de corrente (real)  
    Tipo 5 = Injeção de potencia reativa    Tipo 10 = Injeção de corrente (imag)  
----------------------------------------------------------------------------------
   N    D    P TP  PN ST   Exa   FS       DP      V_Ref      V_Med          E(%) 
----------------------------------------------------------------------------------
   1    0    1  6   0  0 0.015 01.1  0.00520   +1.04000   +1.04597     +0.574038 
   2    0    2  6   0  0 0.015 01.1  0.00505   +1.01000   +1.00309     -0.684158 
   3    0    3  6   0  0 0.015 01.1  0.00491   +0.98199   +0.98946     +0.760700 
   4    0    4  6   0  0 0.015 01.1  0.00487   +0.97476   +0.97939     +0.474989 
   5    0    5  6   0  0 0.015 01.1  0.00486   +0.97138   +0.96508     -0.648562 
   6    0    6  6   0  0 0.015 01.1  0.00489   +0.97807   +0.97912     +0.107354 
   7    0    7  6   0  0 0.015 01.1  0.00488   +0.97566   +0.96279     -1.319107 
   8    0    8  6   0  0 0.015 01.1  0.00502   +1.00500   +1.01035     +0.532338 
   9    0    9  6   0  0 0.015 01.1  0.00487   +0.97302   +0.98536     +1.268216 
  10    0   10  6   0  0 0.015 01.1  0.00477   +0.95429   +0.95333     -0.100598 
  11    0   11  6   0  0 0.015 01.1  0.00476   +0.95164   +0.94790     -0.393006 
  12    0   12  6   0  0 0.015 01.1  0.00492   +0.98294   +0.99525     +1.252365 
  13    0   13  6   0  0 0.015 01.1  0.00475   +0.95090   +0.93696     -1.465980 
  14    0   14  6   0  0 0.015 01.1  0.00470   +0.94073   +0.95285     +1.288361 
  15    0   15  6   0  0 0.015 01.1  0.00484   +0.96795   +0.97357     +0.580609 
  16    0   16  6   0  0 0.015 01.1  0.00490   +0.97983   +0.98927     +0.963432 
  17    0   17  6   0  0 0.015 01.1  0.00496   +0.99245   +1.00310     +1.073102 
  18    0   18  6   0  0 0.015 01.1  0.00490   +0.98000   +0.96856     -1.167347 
  19    0   19  6   0  0 0.015 01.1  0.00466   +0.93160   +0.93733     +0.615071 
  20    0   20  6   0  0 0.015 01.1  0.00460   +0.91901   +0.92044     +0.155602 
  21    0   21  6   0  0 0.015 01.1  0.00478   +0.95674   +0.95733     +0.061668 
  22    0   22  6   0  0 0.015 01.1  0.00479   +0.95745   +0.95210     -0.558776 
  23    0   23  6   0  0 0.015 01.1  0.00478   +0.95533   +0.94562     -1.016403 
  24    0   24  6   0  0 0.015 01.1  0.00470   +0.94081   +0.93572     -0.541023 
  25    0   25  6   0  0 0.015 01.1  0.00447   +0.89474   +0.89933     +0.512998 
  26    0   26  6   0  0 0.015 01.1  0.00453   +0.90594   +0.90659     +0.071749 
  27    0   27  6   0  0 0.015 01.1  0.00474   +0.94716   +0.95023     +0.324127 
  28    0   28  6   0  0 0.015 01.1  0.00486   +0.97158   +0.97917     +0.781202 
  29    0   29  6   0  0 0.015 01.1  0.00496   +0.99216   +0.98215     -1.008910 
  30    0   30  6   0  0 0.015 01.1  0.00433   +0.86598   +0.86583     -0.017321 
  31    0   31  6   0  0 0.015 01.1  0.00414   +0.82814   +0.83471     +0.793344 
  32    0   32  6   0  0 0.015 01.1  0.00426   +0.85230   +0.84721     -0.597208 
  33    0   33  6   0  0 0.015 01.1  0.00424   +0.84893   +0.85756     +1.016574 
  34    0   34  6   0  0 0.015 01.1  0.00443   +0.88512   +0.88990     +0.540040 
  35    0   35  6   0  0 0.015 01.1  0.00448   +0.89623   +0.89162     -0.514377 
  36    0   36  6   0  0 0.015 01.1  0.00455   +0.91081   +0.91185     +0.114184 
  37    0   37  6   0  0 0.015 01.1  0.00462   +0.92348   +0.93284     +1.013557 
  38    0   38  6   0  0 0.015 01.1  0.00481   +0.96177   +0.95435     -0.771494 
  39    0   39  6   0  0 0.015 01.1  0.00460   +0.92092   +0.90764     -1.442036 
  40    0   40  6   0  0 0.015 01.1  0.00454   +0.90757   +0.91049     +0.321738 
  41    0   41  6   0  0 0.015 01.1  0.00477   +0.95319   +0.95430     +0.116451 
  42    0   42  6   0  0 0.015 01.1  0.00453   +0.90606   +0.89863     -0.820034 
  43    0   43  6   0  0 0.015 01.1  0.00490   +0.98007   +0.99242     +1.260114 
  44    0   44  6   0  0 0.015 01.1  0.00486   +0.97146   +0.98417     +1.308340 
  45    0   45  6   0  0 0.015 01.1  0.00504   +1.00825   +1.00791     -0.033722 
  46    0   46  6   0  0 0.015 01.1  0.00511   +1.02174   +1.02780     +0.593106 
  47    0   47  6   0  0 0.015 01.1  0.00494   +0.98698   +0.98747     +0.049646 
  48    0   48  6   0  0 0.015 01.1  0.00490   +0.97950   +0.97319     -0.644206 
  49    0   49  6   0  0 0.015 01.1  0.00495   +0.98954   +0.97497     -1.472401 
  50    0   50  6   0  0 0.015 01.1  0.00486   +0.97213   +0.96609     -0.621316 
  51    0   51  6   0  0 0.015 01.1  0.00507   +1.01336   +1.01842     +0.499329 
  52    0   52  6   0  0 0.015 01.1  0.00474   +0.94835   +0.93853     -1.035483 
  53    0   53  6   0  0 0.015 01.1  0.00467   +0.93376   +0.92607     -0.823552 
  54    0   54  6   0  0 0.015 01.1  0.00485   +0.97088   +0.98188     +1.132993 
  55    0   55  6   0  0 0.015 01.1  0.00510   +1.02033   +1.02356     +0.316564 
  56    0   56  6   0  0 0.015 01.1  0.00452   +0.90348   +0.90746     +0.440519 
  57    0   57  6   0  0 0.015 01.1  0.00448   +0.89591   +0.88434     -1.291424 
  58    0    1  2   0  0 0.020 01.0  0.04906   +7.09979   +7.01693     -1.167077 
  59    0    2  2   0  0 0.020 01.0  0.00200   -0.04000   -0.03664     -8.400000 
  60    0    3  2   0  0 0.020 01.0  0.00267   -0.14100   -0.13893     -1.468085 
  61    0    4  2   0  0 0.020 01.0  0.00173   +0.00000   -0.00447     +0.000000 
  62    0    5  2   0  0 0.020 01.0  0.00288   -0.17200   -0.16928     -1.581395 
  63    0    6  2   0  0 0.020 01.0  0.00833   -0.99000   -0.98902     -0.098990 
  64    0    7  2   0  0 0.020 01.0  0.00173   -0.00000   +0.00465     +0.000000 
  65    0    8  2   0  0 0.020 01.0  0.01853   +2.52000   +2.46672     -2.114286 
  66    0    9  2   0  0 0.020 01.0  0.00319   -0.21800   -0.21363     -2.004587 
  67    0   10  2   0  0 0.020 01.0  0.00257   -0.12600   -0.12757     +1.246032 
  68    0   11  2   0  0 0.020 01.0  0.00173   +0.00000   +0.00195     +0.000000 
  69    0   12  2   0  0 0.020 01.0  0.01424   -1.87600   -1.91248     +1.944563 
  70    0   13  2   0  0 0.020 01.0  0.00332   -0.23800   -0.23286     -2.159664 
  71    0   14  2   0  0 0.020 01.0  0.00266   -0.13900   -0.14617     +5.158273 
  72    0   15  2   0  0 0.020 01.0  0.00367   -0.29000   -0.28687     -1.079310 
  73    0   16  2   0  0 0.020 01.0  0.00552   -0.56800   -0.56797     -0.005282 
  74    0   17  2   0  0 0.020 01.0  0.00543   -0.55400   -0.55302     -0.176895 
  75    0   18  2   0  0 0.020 01.0  0.00413   -0.35900   -0.35310     -1.643454 
  76    0   19  2   0  0 0.020 01.0  0.00203   -0.04400   -0.04674     +6.227273 
  77    0   20  2   0  0 0.020 01.0  0.00193   -0.03000   -0.03304    +10.133333 
  78    0   21  2   0  0 0.020 01.0  0.00173   +0.00000   +0.00270     +0.000000 
  79    0   22  2   0  0 0.020 01.0  0.00173   +0.00000   +0.00478     +0.000000 
  80    0   23  2   0  0 0.020 01.0  0.00229   -0.08300   -0.08758     +5.518072 
  81    0   24  2   0  0 0.020 01.0  0.00173   -0.00000   -0.00126     +0.000000 
  82    0   25  2   0  0 0.020 01.0  0.00229   -0.08300   -0.08853     +6.662651 
  83    0   26  2   0  0 0.020 01.0  0.00173   -0.00000   +0.00452     +0.000000 
  84    0   27  2   0  0 0.020 01.0  0.00255   -0.12300   -0.11836     -3.772358 
  85    0   28  2   0  0 0.020 01.0  0.00214   -0.06100   -0.05804     -4.852459 
  86    0   29  2   0  0 0.020 01.0  0.00323   -0.22400   -0.21829     -2.549107 
  87    0   30  2   0  0 0.020 01.0  0.00205   -0.04800   -0.04709     -1.895833 
  88    0   31  2   0  0 0.020 01.0  0.00225   -0.07700   -0.07886     +2.415584 
  89    0   32  2   0  0 0.020 01.0  0.00187   -0.02100   -0.02481    +18.142857 
  90    0   33  2   0  0 0.020 01.0  0.00207   -0.05000   -0.04521     -9.580000 
  91    0   34  2   0  0 0.020 01.0  0.00173   -0.00000   +0.00418     +0.000000 
  92    0   35  2   0  0 0.020 01.0  0.00226   -0.07900   -0.07549     -4.443038 
  93    0   36  2   0  0 0.020 01.0  0.00173   -0.00000   -0.00144     +0.000000 
  94    0   37  2   0  0 0.020 01.0  0.00173   +0.00000   -0.00004     +0.000000 
  95    0   38  2   0  0 0.020 01.0  0.00297   -0.18500   -0.18218     -1.524324 
  96    0   39  2   0  0 0.020 01.0  0.00173   -0.00000   -0.00219     +0.000000 
  97    0   40  2   0  0 0.020 01.0  0.00173   -0.00000   -0.00371     +0.000000 
  98    0   41  2   0  0 0.020 01.0  0.00229   -0.08300   -0.08563     +3.168675 
  99    0   42  2   0  0 0.020 01.0  0.00236   -0.09400   -0.09616     +2.297872 
 100    0   43  2   0  0 0.020 01.0  0.00191   -0.02600   -0.03012    +15.846154 
 101    0   44  2   0  0 0.020 01.0  0.00279   -0.15800   -0.16274     +3.000000 
 102    0   45  2   0  0 0.020 01.0  0.00173   +0.00000   +0.00058     +0.000000 
 103    0   46  2   0  0 0.020 01.0  0.00173   +0.00000   -0.00467     +0.000000 
 104    0   47  2   0  0 0.020 01.0  0.00435   -0.39200   -0.39416     +0.551020 
 105    0   48  2   0  0 0.020 01.0  0.00173   -0.00000   +0.00220     +0.000000 
 106    0   49  2   0  0 0.020 01.0  0.00332   -0.23800   -0.23044     -3.176471 
 107    0   50  2   0  0 0.020 01.0  0.00358   -0.27700   -0.27482     -0.787004 
 108    0   51  2   0  0 0.020 01.0  0.00332   -0.23800   -0.23870     +0.294118 
 109    0   52  2   0  0 0.020 01.0  0.00217   -0.06500   -0.06090     -6.307692 
 110    0   53  2   0  0 0.020 01.0  0.00349   -0.26400   -0.26773     +1.412879 
 111    0   54  2   0  0 0.020 01.0  0.00209   -0.05400   -0.05555     +2.870370 
 112    0   55  2   0  0 0.020 01.0  0.00233   -0.09000   -0.09507     +5.633333 
 113    0   56  2   0  0 0.020 01.0  0.00240   -0.10000   -0.09779     -2.210000 
 114    0   57  2   0  0 0.020 01.0  0.00232   -0.08800   -0.09461     +7.511364 
 115    0    1  5   0  0 0.020 01.0  0.01150   +1.46418   +1.44581     -1.254627 
 116    0    2  5   0  0 0.020 01.0  0.00687   -0.77042   -0.75068     -2.562239 
 117    0    3  5   0  0 0.020 01.0  0.00389   +0.32300   +0.33333     +3.198142 
 118    0    4  5   0  0 0.020 01.0  0.00173   +0.00000   +0.00500     +0.000000 
 119    0    5  5   0  0 0.020 01.0  0.00209   -0.05300   -0.05842    +10.226415 
 120    0    6  5   0  0 0.020 01.0  0.00323   +0.22400   +0.21810     -2.633929 
 121    0    7  5   0  0 0.020 01.0  0.00173   +0.00000   -0.00080     +0.000000 
 122    0    8  5   0  0 0.020 01.0  0.00657   +0.72505   +0.72651     +0.201365 
 123    0    9  5   0  0 0.020 01.0  0.00196   -0.03400   -0.03443     +1.264706 
 124    0   10  5   0  0 0.020 01.0  0.00207   -0.05000   -0.04844     -3.120000 
 125    0   11  5   0  0 0.020 01.0  0.00173   -0.00000   +0.00003     +0.000000 
 126    0   12  5   0  0 0.020 01.0  0.00995   +1.23300   +1.25042     +1.412814 
 127    0   13  5   0  0 0.020 01.0  0.00193   -0.03000   -0.02756     -8.133333 
 128    0   14  5   0  0 0.020 01.0  0.00220   -0.07000   -0.06908     -1.314286 
 129    0   15  5   0  0 0.020 01.0  0.00217   -0.06600   -0.07047     +6.772727 
 130    0   16  5   0  0 0.020 01.0  0.00200   -0.04000   -0.03849     -3.775000 
 131    0   17  5   0  0 0.020 01.0  0.00244   -0.10600   -0.09977     -5.877358 
 132    0   18  5   0  0 0.020 01.0  0.00259   -0.12900   -0.12148     -5.829457 
 133    0   19  5   0  0 0.020 01.0  0.00179   -0.00800   -0.00561    -29.875000 
 134    0   20  5   0  0 0.020 01.0  0.00182   -0.01300   -0.01641    +26.230769 
 135    0   21  5   0  0 0.020 01.0  0.00173   -0.00000   +0.00375     +0.000000 
 136    0   22  5   0  0 0.020 01.0  0.00173   -0.00000   -0.00386     +0.000000 
 137    0   23  5   0  0 0.020 01.0  0.00192   -0.02800   -0.02520    -10.000000 
 138    0   24  5   0  0 0.020 01.0  0.00173   -0.00000   -0.00470     +0.000000 
 139    0   25  5   0  0 0.020 01.0  0.00201   -0.04200   -0.04019     -4.309524 
 140    0   26  5   0  0 0.020 01.0  0.00173   +0.00000   -0.00458     +0.000000 
 141    0   27  5   0  0 0.020 01.0  0.00178   -0.00700   -0.00252    -64.000000 
 142    0   28  5   0  0 0.020 01.0  0.00193   -0.03000   -0.03381    +12.700000 
 143    0   29  5   0  0 0.020 01.0  0.00196   -0.03400   -0.03884    +14.235294 
 144    0   30  5   0  0 0.020 01.0  0.00189   -0.02400   -0.02622     +9.250000 
 145    0   31  5   0  0 0.020 01.0  0.00199   -0.03800   -0.03595     -5.394737 
 146    0   32  5   0  0 0.020 01.0  0.00181   -0.01100   -0.01420    +29.090909 
 147    0   33  5   0  0 0.020 01.0  0.00190   -0.02500   -0.01959    -21.640000 
 148    0   34  5   0  0 0.020 01.0  0.00173   -0.00000   -0.00479     +0.000000 
 149    0   35  5   0  0 0.020 01.0  0.00200   -0.04000   -0.04010     +0.250000 
 150    0   36  5   0  0 0.020 01.0  0.00173   +0.00000   +0.00147     +0.000000 
 151    0   37  5   0  0 0.020 01.0  0.00173   +0.00000   -0.00099     +0.000000 
 152    0   38  5   0  0 0.020 01.0  0.00235   -0.09200   -0.09824     +6.782609 
 153    0   39  5   0  0 0.020 01.0  0.00173   +0.00000   +0.00136     +0.000000 
 154    0   40  5   0  0 0.020 01.0  0.00173   +0.00000   -0.00297     +0.000000 
 155    0   41  5   0  0 0.020 01.0  0.00200   -0.04000   -0.03844     -3.900000 
 156    0   42  5   0  0 0.020 01.0  0.00212   -0.05800   -0.05934     +2.310345 
 157    0   43  5   0  0 0.020 01.0  0.00182   -0.01300   -0.00977    -24.846154 
 158    0   44  5   0  0 0.020 01.0  0.00189   -0.02400   -0.01969    -17.958333 
 159    0   45  5   0  0 0.020 01.0  0.00173   +0.00000   +0.00291     +0.000000 
 160    0   46  5   0  0 0.020 01.0  0.00173   +0.00000   +0.00211     +0.000000 
 161    0   47  5   0  0 0.020 01.0  0.00275   -0.15300   -0.15431     +0.856209 
 162    0   48  5   0  0 0.020 01.0  0.00173   +0.00000   +0.00150     +0.000000 
 163    0   49  5   0  0 0.020 01.0  0.00248   -0.11200   -0.11827     +5.598214 
 164    0   50  5   0  0 0.020 01.0  0.00266   -0.13900   -0.14090     +1.366906 
 165    0   51  5   0  0 0.020 01.0  0.00220   -0.07000   -0.07082     +1.171429 
 166    0   52  5   0  0 0.020 01.0  0.00193   -0.02900   -0.03008     +3.724138 
 167    0   53  5   0  0 0.020 01.0  0.00261   -0.13200   -0.13555     +2.689394 
 168    0   54  5   0  0 0.020 01.0  0.00185   -0.01800   -0.02099    +16.611111 
 169    0   55  5   0  0 0.020 01.0  0.00203   -0.04500   -0.04210     -6.444444 
 170    0   56  5   0  0 0.020 01.0  0.00193   -0.02900   -0.02461    -15.137931 
 171    0   57  5   0  0 0.020 01.0  0.00191   -0.02600   -0.02288    -12.000000 
 172    1    2  1   0  0 0.020 01.0  0.01359   +1.77895   +1.74110     -2.127660 
 173    2    3  1   0  0 0.020 01.0  0.01315   +1.71171   +1.71599     +0.250042 
 174    3    4  1   0  0 0.020 01.0  0.00901   +1.09204   +1.09681     +0.436797 
 175    4    5  1   0  0 0.020 01.0  0.00370   +0.29523   +0.28959     -1.910375 
 176    4    6  1   0  0 0.020 01.0  0.00413   +0.35960   +0.35708     -0.700779 
 177    6    7  1   0  0 0.020 01.0  0.00245   -0.10767   -0.10316     -4.188725 
 178    6    8  1   0  0 0.020 01.0  0.00449   -0.41363   -0.41897     +1.291009 
 179    8    9  1   0  0 0.020 01.0  0.01002   +1.24303   +1.24241     -0.049878 
 180    9   10  1   0  0 0.020 01.0  0.00393   +0.33006   +0.33670     +2.011755 
 181    9   11  1   0  0 0.020 01.0  0.00314   +0.21032   +0.20938     -0.446938 
 182    9   12  1   0  0 0.020 01.0  0.00252   +0.11793   +0.12296     +4.265242 
 183    9   13  1   0  0 0.020 01.0  0.00216   +0.06459   +0.06689     +3.560923 
 184   13   14  1   0  0 0.020 01.0  0.00351   -0.26678   -0.27549     +3.264862 
 185   13   15  1   0  0 0.020 01.0  0.00709   -0.80309   -0.78265     -2.545169 
 186    1   15  1   0  0 0.020 01.0  0.01812   +2.45749   +2.46471     +0.293796 
 187    1   16  1   0  0 0.020 01.0  0.01065   +1.33785   +1.31916     -1.397018 
 188    1   17  1   0  0 0.020 01.0  0.01190   +1.52550   +1.49661     -1.893805 
 189    3   15  1   0  0 0.020 01.0  0.00435   +0.39255   +0.38113     -2.909184 
 190    4   18  1   0  0 0.020 01.0  0.00297   +0.18560   +0.17715     -4.552802 
 191    4   18  1   0  0 0.020 01.0  0.00332   +0.23760   +0.23430     -1.388889 
 192    5    6  1   0  0 0.020 01.0  0.00251   +0.11675   +0.11761     +0.736617 
 193    7    8  1   0  0 0.020 01.0  0.00737   -0.84605   -0.83074     -1.809586 
 194   10   12  1   0  0 0.020 01.0  0.00287   -0.17088   -0.16870     -1.275749 
 195   11   13  1   0  0 0.020 01.0  0.00241   -0.10137   -0.09992     -1.430403 
 196   12   13  1   0  0 0.020 01.0  0.00416   -0.36337   -0.37059     +1.986955 
 197   12   16  1   0  0 0.020 01.0  0.00629   -0.68378   -0.69307     +1.358624 
 198   12   17  1   0  0 0.020 01.0  0.00763   -0.88482   -0.87786     -0.786601 
 199   14   15  1   0  0 0.020 01.0  0.00875   -1.05192   -1.06089     +0.852726 
...
Número de medidores SCADA:     491
Número de PMUs:                0
Número de medidas das PMUs:    0
----------------------------------------------------------------------------------

Não há medidas de ângulo.
Não há medidores desabilitados.
============================== Estado Estimado ===================================
                 Barra     Mod(pu)    Ang(graus)              
----------------------------------------------------------------------------------
                    1            1.0389              0.00        
                    2            1.0093             -2.42        
                    3            0.9815            -11.06        
                    4            0.9744            -13.51        
                    5            0.9707            -16.27        
                    6            0.9774            -17.01        
                    7            0.9750            -16.31        
                    8            1.0042            -13.01        
                    9            0.9725            -16.40        
                   10            0.9537            -19.72        
                   11            0.9515            -17.20        
                   12            0.9823            -18.73        
                   13            0.9505            -16.68        
                   14            0.9402            -15.68        
                   15            0.9673            -12.18        
                   16            0.9791            -15.17        
                   17            0.9917             -8.84        
                   18            0.9795            -19.18        
                   19            0.9304            -21.32        
                   20            0.9173            -21.61        
                   21            0.9561            -21.08        
                   22            0.9567            -21.00        
                   23            0.9546            -21.14        
                   24            0.9403            -22.24        
                   25            0.8970            -29.81        
                   26            0.9053            -21.87        
                   27            0.9473            -20.84        
                   28            0.9713            -19.77        
                   29            0.9916            -19.02        
                   30            0.8686            -30.68        
                   31            0.8314            -31.79        
                   32            0.8524            -30.17        
                   33            0.8492            -30.23        
                   34            0.8840            -22.81        
                   35            0.8952            -22.47        
                   36            0.9098            -22.11        
                   37            0.9224            -21.83        
                   38            0.9609            -20.72        
                   39            0.9197            -21.91        
                   40            0.9065            -22.17        
                   41            0.9538            -22.84        
                   42            0.9063            -24.83        
                   43            0.9804            -18.84        
                   44            0.9706            -19.33        
                   45            1.0074            -15.41        
                   46            1.0211            -18.21        
                   47            0.9863            -20.27        
                   48            0.9788            -20.47        
                   49            0.9888            -21.04        
                   50            0.9715            -22.01        
                   51            1.0126            -21.17        
                   52            0.9481            -20.70        
                   53            0.9338            -21.39        
                   54            0.9711            -20.03        
                   55            1.0202            -18.25        
                   56            0.9038            -25.52        
                   57            0.8958            -26.34        
----------------------------------------------------------------------------------
Convergiu em:    3 iteraçoes. 
----------------------------------------------------------------------------------
--- RESIDUOS NORMALIZADOS --------------------------------------------------------
   N    D    P  TP      Real     Medido   Estimado      Med-Est        rn 
----------------------------------------------------------------------------------
 190    4   18  1    +0.1856    +0.1772    +0.2243  -4.7108e-02      0.922 
 350   18    4  1    -0.1856    -0.1918    -0.2243  +3.2468e-02      0.635 
  75    0   18  2    -0.3590    -0.3531    -0.3323  -2.0827e-02      0.410 
  61    0    4  2    +0.0000    -0.0045    -0.0117  +7.2266e-03      0.388 
 132    0   18  5    -0.1290    -0.1215    -0.1329  +1.1405e-02      0.283 
 103    0   46  2    +0.0000    -0.0047    +0.0008  -5.4788e-03      0.239 
 212    7   29  1    +0.7381    +0.7482    +0.7313  +1.6944e-02      0.231 
 185   13   15  1    -0.8031    -0.7826    -0.8008  +1.8191e-02      0.221 
 345   15   13  1    +0.8225    +0.8021    +0.8202  -1.8118e-02      0.219 
 117    0    3  5    +0.3230    +0.3333    +0.3236  +9.7277e-03      0.216 
 403   45   44  1    +0.5558    +0.5713    +0.5561  +1.5197e-02      0.216 
 336    6    4  1    -0.3532    -0.3409    -0.3542  +1.3233e-02      0.216 
 189    3   15  1    +0.3926    +0.3811    +0.3940  -1.2842e-02      0.215 
 172    1    2  1    +1.7790    +1.7411    +1.7640  -2.2923e-02      0.210 
 126    0   12  5    +1.2330    +1.2504    +1.2340  +1.6453e-02      0.210 
 188    1   17  1    +1.5255    +1.4966    +1.5179  -2.1278e-02      0.209 
  58    0    1  2    +7.0998    +7.0169    +7.0578  -4.0907e-02      0.207 
  69    0   12  2    -1.8760    -1.9125    -1.8924  -2.0086e-02      0.206 
  49    0   49  6    +0.9895    +0.9750    +0.9888  -1.3828e-02      0.198 
  13    0   13  6    +0.9509    +0.9370    +0.9505  -1.3498e-02      0.197 
 358   17   12  1    +0.9191    +0.9020    +0.9186  -1.6573e-02      0.197 
  44    0   44  6    +0.9715    +0.9842    +0.9706  +1.3586e-02      0.197 
 184   13   14  1    -0.2668    -0.2755    -0.2650  -1.0464e-02      0.194 
 269    3   15  4    +0.1172    +0.1114    +0.1200  -8.5707e-03      0.193 
 332    2    1  1    -1.7517    -1.7581    -1.7372  -2.0876e-02      0.192 
 112    0   55  2    -0.0900    -0.0951    -0.0887  -6.3563e-03      0.188 
  12    0   12  6    +0.9829    +0.9952    +0.9823  +1.2975e-02      0.186 
  14    0   14  6    +0.9407    +0.9528    +0.9402  +1.2648e-02      0.186 
   9    0    9  6    +0.9730    +0.9854    +0.9725  +1.2825e-02      0.185 
 191    4   18  1    +0.2376    +0.2343    +0.2243  +1.0042e-02      0.185 
  39    0   39  6    +0.9209    +0.9076    +0.9197  -1.2107e-02      0.181 
  73    0   16  2    -0.5680    -0.5680    -0.5582  -9.7375e-03      0.179 
 174    3    4  1    +1.0920    +1.0968    +1.0813  +1.5513e-02      0.177 
  57    0   57  6    +0.8959    +0.8843    +0.8958  -1.1411e-02      0.176 
   7    0    7  6    +0.9757    +0.9628    +0.9750  -1.2205e-02      0.176 
 100    0   43  2    -0.0260    -0.0301    -0.0247  -5.3996e-03      0.176 
  65    0    8  2    +2.5200    +2.4667    +2.4870  -2.0277e-02      0.175 
  43    0   43  6    +0.9801    +0.9924    +0.9804  +1.1998e-02      0.173 
 266    1   15  4    +0.5399    +0.5466    +0.5348  +1.1869e-02      0.172 
 178    6    8  1    -0.4136    -0.4190    -0.4079  -1.1021e-02      0.171 
 276   12   13  4    +0.6354    +0.6220    +0.6341  -1.2120e-02      0.171 
 339    9    8  1    -1.2261    -1.1968    -1.2121  +1.5233e-02      0.170 
  95    0   38  2    -0.1850    -0.1822    -0.1877  +5.5295e-03      0.169 
 416    6    4  4    +0.1198    +0.1264    +0.1183  +8.1178e-03      0.169 
 230   14   46  1    +0.6437    +0.6271    +0.6393  -1.2151e-02      0.168 
 349   15    3  1    -0.3896    -0.4010    -0.3910  -9.9980e-03      0.168 
  17    0   17  6    +0.9925    +1.0031    +0.9917  +1.1432e-02      0.164 
 236   10   51  1    +0.3706    +0.3584    +0.3678  -9.4052e-03      0.163 
 104    0   47  2    -0.3920    -0.3942    -0.3857  -8.4646e-03      0.161 
 258    6    8  4    -0.0794    -0.0727    -0.0801  +7.3559e-03      0.161 
 159    0   45  5    +0.0000    +0.0029    -0.0019  +4.8141e-03      0.160 
 415    5    4  4    +0.1080    +0.1132    +0.1058  +7.4389e-03      0.159 
 131    0   17  5    -0.1060    -0.0998    -0.1055  +5.7636e-03      0.159 
  18    0   18  6    +0.9800    +0.9686    +0.9795  -1.0892e-02      0.158 
 186    1   15  1    +2.4575    +2.4647    +2.4443  +2.0390e-02      0.157 
  54    0   54  6    +0.9709    +0.9819    +0.9711  +1.0797e-02      0.157 
 388   44   38  1    +0.3788    +0.3868    +0.3777  +9.0700e-03      0.156 
  37    0   37  6    +0.9235    +0.9328    +0.9224  +1.0438e-02      0.155 
 316   10   51  4    +0.1885    +0.1822    +0.1897  -7.5360e-03      0.155 
 179    8    9  1    +1.2430    +1.2424    +1.2286  +1.3781e-02      0.154 
 201   19   20  1    +0.0179    +0.0137    +0.0196  -5.8722e-03      0.152 
 351   18    4  1    -0.2376    -0.2325    -0.2243  -8.2522e-03      0.152 
 261    9   11  4    +0.1721    +0.1770    +0.1695  +7.5084e-03      0.150 
 417    7    6  4    -0.0566    -0.0626    -0.0564  -6.2676e-03      0.149 
 168    0   54  5    -0.0180    -0.0210    -0.0163  -4.6982e-03      0.148 
 423   13    9  4    -0.1320    -0.1245    -0.1319  +7.3326e-03      0.146 
  16    0   16  6    +0.9798    +0.9893    +0.9791  +1.0172e-02      0.146 
 476   51   10  4    -0.1769    -0.1851    -0.1781  -6.9200e-03      0.144 
 138    0   24  5    -0.0000    -0.0047    -0.0008  -3.8874e-03      0.144 
 263    9   13  4    +0.0974    +0.0905    +0.0973  -6.7544e-03      0.142 
  52    0   52  6    +0.9484    +0.9385    +0.9481  -9.6139e-03      0.141 
 116    0    2  5    -0.7704    -0.7507    -0.7602  +9.5468e-03      0.141 
 413    3    2  4    +0.3401    +0.3468    +0.3386  +8.1873e-03      0.141 
 142    0   28  5    -0.0300    -0.0338    -0.0293  -4.4611e-03      0.140 
 363   22   21  1    +0.0123    +0.0152    +0.0102  +4.9954e-03      0.139 
 312   47   48  4    +0.1294    +0.1217    +0.1278  -6.1305e-03      0.139 
 214   30   31  1    +0.0486    +0.0442    +0.0497  -5.5268e-03      0.139 
 247   39   57  1    +0.0478    +0.0419    +0.0480  -6.1036e-03      0.139 
 471   47   46  4    -0.2824    -0.2759    -0.2835  +7.6626e-03      0.139 
 237   13   49  1    +0.4199    +0.4273    +0.4183  +8.9705e-03      0.138 
 489   49   38  4    +0.1220    +0.1289    +0.1221  +6.7391e-03      0.138 
  33    0   33  6    +0.8489    +0.8576    +0.8492  +8.3190e-03      0.135 
 378   35   34  1    +0.1027    +0.1067    +0.1009  +5.7219e-03      0.135 
  29    0   29  6    +0.9922    +0.9821    +0.9916  -9.4217e-03      0.135 
 208   24   26  1    -0.1095    -0.1060    -0.1118  +5.8583e-03      0.135 
 335    5    4  1    -0.2888    -0.2815    -0.2893  +7.7554e-03      0.134 
  98    0   41  2    -0.0830    -0.0856    -0.0815  -4.0823e-03      0.133 
  66    0    9  2    -0.2180    -0.2136    -0.2098  -3.8055e-03      0.133 
 273    7    8  4    -0.2226    -0.2306    -0.2238  -6.8478e-03      0.133 
 385   41   11  1    -0.1252    -0.1312    -0.1246  -6.5222e-03      0.132 
 228   38   44  1    -0.3744    -0.3810    -0.3733  -7.7007e-03      0.132 
  23    0   23  6    +0.9553    +0.9456    +0.9546  -8.9456e-03      0.131 
 102    0   45  2    +0.0000    +0.0006    +0.0036  -3.0373e-03      0.130 
...